600
19.0281235822 19.0281235822 19.1208463438
O 1.83108 1.06621 3.48588
O 0.998765 5.00017 0.315316
O 1.61597 3.50825 3.96702
Ti 0.52733 1.32287 2.64914
O 4.08531 2.49177 3.48606
Ti 9.32892 2.39709 3.20703
O 4.10376 2.56631 0.842386
Ti 4.47464 2.51377 2.21519
O 1.12966 7.96879 0.340224
Ti 0.0014093 8.92828 0.634152
O 1.57038 2.48416 0.670974
O 9.19275 8.13294 1.45399
O 5.54303 0.229798 2.15595
Ti 6.1375 1.15649 1.32122
O 5.68382 2.58533 1.28888
O 8.18638 2.84223 2.46085
Ti 7.06762 2.94046 3.72604
O 7.36344 0.924627 0.546885
O 7.65307 1.86117 4.36963
Ti 8.31122 0.508139 3.95084
O 6.11494 4.12835 3.90817
O 2.48924 5.43788 2.07068
Ti 0.795214 7.53075 1.54606
O 1.0288 9.15708 1.50575
Ti 2.23638 8.41579 1.31035
Ti 0.596097 3.62522 0.118669
Ti 1.82369 7.74635 4.26126
O 3.4673 7.96647 1.79637
Ti 3.49262 8.52841 3.08965
Ti 1.41153 2.23538 4.4352
Ti 6.59736 8.08418 2.14527
Ti 4.10218 8.66822 0.819889
O 0.835535 8.8622 3.95934
Ti 6.73847 6.43814 1.58356
Ti 7.13362 7.73214 4.18544
Ti 8.36948 7.0984 1.86701
O 7.30019 7.0021 2.89602
O 5.93151 8.00354 3.35376
O 6.87507 8.91179 0.947127
O 8.15009 5.69136 2.25835
O 5.16174 5.56464 1.56805
Ti 8.45487 6.54932 3.55935
O 2.90405 0.0353104 1.31761
O 9.4183 6.2573 4.50377
O 7.65553 4.32156 0.257987
O 0.0492917 6.50251 2.23485
Ti 0.0775832 2.02499 1.05443
O 1.5495 6.27635 4.42148
O 3.73494 4.93603 4.69179
Ti 6.8655 0.855481 4.83987
O 3.20343 8.35685 4.34042
O 6.28856 6.43535 0.300408
Ti 3.43749 3.60555 7.70227
O 3.5003 2.92161 6.42446
O 2.89194 0.286937 6.05005
O 0.754109 2.1966 5.86595
O 5.48905 6.90498 6.64358
O 8.79066 7.56257 8.40256
O 9.42484 3.39981 5.85498
O 5.01774 9.64505 5.91075
O 4.27122 8.59562 8.38424
Ti 4.51085 0.584288 9.05185
O 4.67417 0.766047 7.60494
O 7.49609 5.22891 6.11693
Ti 8.50266 2.51007 5.27914
O 7.06218 1.64751 8.0537
O 8.16035 0.936334 5.57455
Ti 8.23913 4.061 5.97393
O 6.99852 3.72443 6.56698
Ti 6.55911 4.46325 5.18941
O 8.44483 4.8786 8.81199
O 4.93567 3.33483 8.21075
Ti 7.50426 5.11209 7.56966
O 1.60643 -0.110745 7.12819
O 0.929481 8.98324 6.60856
O 5.5474 0.514247 5.03461
O 7.72878 7.85987 5.47225
O 2.44263 4.32656 8.37789
O 2.97498 6.81385 6.75603
O 0.592769 2.19466 8.46263
Ti 9.03381 6.04379 8.13135
O 6.85925 5.11073 9.21086
O 0.564178 6.40425 9.39906
O 4.41551 5.82285 8.90088
Ti 9.00591 7.57413 4.66588
Ti 2.8806 2.79504 11.5181
O 2.6863 1.60529 12.1915
O 3.60877 3.50514 10.5557
Ti 4.68607 2.16866 14.0391
O 0.31958 4.21107 13.4388
Ti 9.49321 6.70226 11.3461
Ti 0.836219 9.17473 13.7017
O 8.05441 9.01943 11.8477
O 7.51579 2.80755 10.4164
O 5.19548 1.94786 12.6607
O 6.95369 0.289329 11.4352
O 5.02292 4.80779 12.517
O 8.61195 4.48438 12.6501
Ti 7.6119 3.99399 9.42263
O 6.73602 2.87099 13.8583
Ti 7.92453 5.64642 9.86148
O 2.17676 4.29603 11.1464
Ti 0.0379145 6.74701 10.8567
O 4.54772 7.86353 13.689
O 8.16984 6.54329 10.9072
O 5.56285 6.67447 11.3371
O 2.85342 7.4324 10.6621
O 9.10063 1.51946 12.328
O 5.36072 1.44333 9.98249
Ti 8.14323 5.68863 12.0117
O 7.41945 5.99181 13.2212
Ti 2.62644 4.0943 9.72338
Ti 8.22497 6.94387 13.5585
O 0.529821 6.78076 12.1473
Ti 4.00795 9.03811 14.1923
O 6.90769 9.61437 14.2459
O 2.6134 6.12392 14.1451
O 6.80182 8.28481 9.74171
O 1.49345 9.00531 9.08036
O 6.5589 9.03759 16.7879
O 0.930466 2.03789 17.0894
Ti 1.19927 1.3687 15.8861
Ti 1.35326 3.45582 17.5117
Ti -0.12318 1.88331 18.3749
O 2.49482 0.744733 15.4057
O 2.66506 3.82769 17.8583
O 2.88804 1.14505 17.9261
Ti 2.94405 0.378667 16.7258
O -0.0928626 3.44355 17.9454
O 7.89055 4.63249 15.5794
O 5.27871 4.63303 18.082
Ti 7.7253 5.71405 14.6877
O 5.13609 4.43608 15.4353
Ti 5.33981 3.74834 16.591
O 5.30742 2.73652 17.5666
O 5.87432 1.22883 17.624
Ti 6.66382 2.2746 17.4805
Ti 5.46448 1.89156 16.4244
O 7.93399 2.71364 17.3764
O 5.18511 1.32553 15.2096
O 8.63194 7.56015 17.2927
O 3.41841 3.1043 14.2229
Ti 9.24235 6.29784 17.6152
Ti 2.29871 5.07054 18.4413
O -0.0529296 6.44096 15.005
O 2.22333 7.93179 16.906
Ti 0.810297 7.84112 17.969
O 7.23011 6.94447 14.4567
O 4.49166 8.60889 18.4594
O 1.43374 8.73437 14.8874
O 4.9499 6.93025 16.6029
O 0.432814 0.870921 14.6015
O 3.27468 6.10693 18.7258
Ti 6.55316 1.82135 14.8941
O 8.01734 0.99129 15.2802
Ti 5.12402 2.8488 19.0715
Ti 3.92962 12.0015 2.08079
O 2.52651 11.3845 2.49075
O 4.46827 13.5174 2.14037
Ti 4.22937 13.6165 0.693682
O 1.68797 13.8922 2.77639
O 4.64894 10.6945 1.27446
O 7.95785 16.0401 1.40042
Ti 6.11837 12.7767 -0.0121432
O -0.0229906 11.8271 1.63298
O 4.66015 11.6011 3.98964
O 8.52659 10.4827 2.22394
Ti 4.75345 10.4376 2.74502
Ti 7.0763 11.1102 2.57168
O 6.26723 10.7157 3.67881
O 6.62864 12.2978 1.70893
O 8.71134 14.165 1.72646
O 4.40795 9.27582 2.08004
Ti 5.53539 18.3719 1.09464
O 3.05187 14.5924 0.290496
O 4.53504 17.2709 0.543795
O 8.11832 18.7064 2.90997
O 3.79856 16.0301 2.49218
Ti 3.2785 17.955 0.701921
Ti 3.07295 17.0776 3.07814
O 1.54706 16.8755 3.29707
O 3.67795 18.1183 3.77065
O 1.77055 17.4821 0.433197
O 6.70514 14.1006 3.67652
O -0.0737194 19.0437 2.11962
Ti 8.7802 15.5073 2.33359
O 6.21196 17.055 3.78218
Ti 4.08597 18.84 2.26697
O 0.287292 11.6442 4.29641
Ti 5.57641 9.43919 1.37065
O 1.95379 11.4075 7.65078
Ti 1.28828 12.0828 8.81294
Ti 2.7543 11.3761 6.41541
O 2.4913 10.715 5.12199
O 0.961447 13.0247 7.87447
Ti 0.507598 11.7992 7.31699
O 3.91511 12.3225 6.5647
Ti 0.369315 14.1559 7.34038
O 2.86783 17.2831 9.08677
Ti 7.20296 17.3449 8.5501
Ti 9.58034 10.6032 6.04343
O 3.90931 14.3932 4.67246
Ti 8.91023 14.1411 6.98116
O 6.41459 14.0822 6.30066
Ti 7.19959 11.5766 7.64571
Ti 6.68251 11.4204 9.36412
O 6.72222 12.6497 8.65328
O 5.87834 11.0727 7.91392
O 8.45029 11.1896 7.0441
Ti 5.06532 10.4507 4.73942
O 0.0859525 18.44 4.92853
O 7.13354 8.90753 7.19068
O 3.02302 14.903 7.37827
O 2.57393 16.6846 5.56038
O 0.51072 15.3224 6.69991
Ti 4.41101 17.6776 8.87004
Ti -0.022409 15.9174 7.81659
O 8.33231 16.6805 9.08137
Ti 2.48521 18.4941 8.05181
O 8.60271 10.5354 4.96938
O 4.00799 12.0236 9.30062
O 5.74704 17.635 8.76895
O 8.8182 14.5193 8.33664
Ti 2.48346 18.0136 6.26562
O 8.03705 13.699 5.86399
O 8.66927 17.1968 5.94025
O 6.83101 18.3532 7.65782
Ti 6.07281 15.3739 7.03622
O 6.26957 15.2724 8.37801
O 5.45547 16.3747 6.27991
Ti 5.94398 17.1629 7.29622
Ti 7.80482 15.4972 8.51193
Ti 7.03656 13.8586 4.89463
Ti 5.40627 18.6465 7.92826
O 3.28909 18.8816 9.28163
O 3.48956 9.32577 11.9148
Ti 3.78454 10.7106 12.4164
O 4.05796 11.9363 11.668
Ti 2.28517 9.47481 12.6884
Ti 3.38513 12.5141 12.7228
O 1.05762 11.7388 10.3308
Ti 4.50305 10.847 14.2441
O 3.35158 10.1896 13.668
Ti 1.9513 13.3848 13.1736
O 2.43092 12.3446 13.8997
O 5.6141 9.27747 12.0763
O 0.753932 13.6741 12.2584
Ti 5.00371 11.8468 12.6597
O 9.25467 11.0979 13.5392
O 6.54571 11.8578 12.7225
Ti 2.78287 18.107 10.3074
Ti 6.11668 13.0048 13.3994
O 8.11099 13.3157 10.9811
Ti -0.368417 13.1372 12.9499
O 7.26512 10.72 10.583
Ti 6.25083 10.5762 13.5624
O 5.586 11.9829 14.0144
O 5.37286 13.9912 10.4615
O 6.69193 14.2475 13.1492
Ti 1.82079 16.512 9.62337
O 2.68111 13.7547 10.4541
Ti 1.69083 14.4554 11.363
O 1.62506 15.8416 11.1272
O 3.11874 13.7642 13.6091
O 5.21536 18.3675 13.3322
O 6.46463 16.4389 10.951
Ti 7.86937 16.2709 10.533
O 4.03107 15.6966 12.2259
O 7.62046 17.0091 13.3189
O 8.91295 15.7111 11.2132
Ti 6.90457 9.15356 12.6728
O 2.53649 18.1937 11.7238
O 0.541914 17.323 13.4506
O 0.515507 16.0422 9.30776
O -0.129551 17.7601 11.1327
Ti 7.45697 9.18055 10.5314
O 9.51111 19.2613 9.86047
O 0.884642 9.48782 12.3359
O 3.12763 12.6381 16.2237
O 3.77645 10.076 15.2969
Ti 1.06585 9.90224 15.7174
O 1.24874 10.8747 16.591
Ti 2.39844 9.65943 14.6475
O 3.39019 10.7918 17.9855
Ti 5.29418 16.4012 18.9091
O 1.51535 12.7023 18.7315
Ti 5.38836 13.999 17.7086
O 5.75394 13.1295 16.6401
Ti 6.96474 12.6654 17.4297
Ti 6.05216 12.3237 15.2222
O 6.74207 11.6324 16.3029
Ti 1.64863 14.1687 18.6968
Ti 4.47451 17.7288 18.3259
O 9.1847 9.95334 15.9087
O 7.46141 12.7529 18.7302
O 8.6483 18.236 17.6919
Ti 8.5918 15.4266 16.6067
Ti 0.305738 15.8239 15.4549
O 1.45418 14.8625 15.6428
O 0.621564 17.3199 15.9023
O 5.06561 15.5351 15.2418
O 3.68113 18.3835 17.4349
O 0.515485 15.1424 18.1967
Ti 8.83703 16.905 17.3989
O 5.2751 15.3655 17.9621
O 7.89787 14.6876 15.6192
O 8.68402 15.7118 17.9701
O 6.17118 18.038 15.8712
O 3.1478 17.3112 14.7444
O 5.96501 17.6239 18.9773
O 4.78845 12.8382 18.8115
O 9.05092 10.2372 18.6683
O 12.3377 3.1979 0.955493
O 10.5955 1.45655 2.90472
O 12.9288 5.05568 3.99115
O 10.9854 3.15206 3.71026
Ti 11.0179 1.43955 4.21097
O 9.76641 2.2535 0.186323
O 17.6832 9.11344 0.319831
O 13.9034 2.40803 3.80805
O 14.7028 4.16601 1.49669
O 16.1624 1.98076 1.90341
O 16.995 4.38075 3.18184
O 16.1304 5.54192 0.00119099
Ti 18.0275 5.07782 4.10666
O 18.763 2.46318 2.49977
O 12.896 8.01987 -0.037876
O 10.0884 4.55979 1.25624
Ti 17.2128 8.73667 1.62175
O 11.3898 6.2292 2.34505
O 12.1596 8.52726 2.63207
Ti 12.6465 8.79338 1.20883
Ti 12.7702 7.03673 2.27731
O 14.2061 6.77821 1.61118
O 18.3878 1.16881 0.156867
O 16.5991 7.56054 1.93349
Ti 15.0388 5.44943 0.892556
O 9.77326 8.45966 3.9938
O 18.01 6.63183 4.0272
O 15.3501 9.03194 3.93706
O 15.2001 6.29939 4.02701
Ti 17.7799 7.11818 2.51345
Ti 12.0562 2.08525 6.33735
O 12.4327 1.52301 7.6857
O 11.9653 3.56192 6.21455
O 9.92762 2.29283 8.18688
O 11.6942 1.14832 5.30577
Ti 11.9111 0.142975 7.77839
O 13.8481 3.49084 8.09182
O 18.0875 4.56201 8.0617
O 18.0479 8.54307 8.0238
O 15.9114 4.15756 6.16099
Ti 16.2046 1.3049 9.16197
O 17.9285 0.352608 7.06117
Ti 14.9299 2.47478 8.55859
O 14.9485 1.14551 8.66712
O 16.8582 2.41414 4.58188
O 13.8362 5.62843 6.17185
O 13.8018 9.34955 6.33565
Ti 13.9173 8.43012 7.36882
O 12.1572 7.35164 5.02413
O 10.5475 5.85029 7.00975
O 12.9234 7.47895 7.62045
Ti 17.438 7.52463 5.3598
O 15.7006 5.67073 8.83327
O 17.4831 9.02242 5.44083
O 15.2723 8.42597 8.14102
O 16.8045 6.57974 6.35376
Ti 18.548 5.75207 8.76525
O 14.608 0.0970003 5.92733
O 18.5188 4.60204 5.35662
O 11.001 9.33101 9.195
O 12.4009 5.22172 9.12424
Ti 11.643 4.07741 9.5004
O 16.2274 3.03222 9.28809
Ti 10.6443 2.67764 9.33928
Ti 13.604 4.03274 9.31678
Ti 14.1549 5.57427 4.75229
O 10.6847 3.43408 10.4482
Ti 11.8912 3.23089 11.2651
O 12.6731 3.17784 12.4323
Ti 12.2432 2.02799 13.0159
O 11.7793 0.696403 13.0863
O 13.839 1.38879 11.106
Ti 13.5702 3.863 13.3367
O 11.9519 2.61897 9.84474
Ti 14.4736 1.12185 9.89021
O 12.4326 3.02613 13.996
O 17.3713 8.74595 10.7822
O 14.4317 4.4749 10.5509
Ti 15.0493 1.89205 11.5247
Ti 15.4303 2.97586 13.2605
O 15.8972 3.0679 11.9287
O 14.7321 4.46474 13.779
O 15.2221 0.418752 11.1453
O 18.4054 3.72914 10.6218
O 16.8074 7.43903 13.4851
O 18.4457 1.52004 12.1105
Ti 17.8475 8.0623 9.4416
O 11.0108 6.83635 10.4121
O 9.58252 7.37927 13.0669
O 13.3014 8.30162 10.686
O 12.5956 7.67736 13.0171
O 14.598 6.54387 12.1881
Ti 16.0008 7.01185 12.4547
Ti 14.7575 5.58497 11.146
O 18.0176 6.55677 9.98344
Ti 14.4752 7.48753 11.2006
O 15.6827 6.77206 11.0339
Ti 12.5172 0.729283 14.2535
O 11.3347 5.47188 14.0016
O 17.2057 0.190987 9.58565
O 11.2293 9.11471 14.4588
O 12.6872 1.96073 17.9662
Ti 13.1913 0.956783 16.832
O 13.7364 1.07423 15.1594
O 11.4039 3.82006 16.3554
Ti 10.5599 2.71423 16.1587
O 13.9582 3.61766 16.2104
Ti 15.4138 9.17508 15.4691
Ti 10.7242 4.79508 16.9865
Ti 10.2291 4.91586 19.033
Ti 15.2832 6.31918 17.9475
Ti 14.1085 2.21692 18.5664
O 14.1951 0.465861 18.0904
O 15.0553 6.32738 16.5754
O 9.31386 4.85829 17.7421
O 18.0272 2.81652 15.3389
Ti 14.9859 3.40754 17.0715
O 16.2756 3.62717 17.2608
O 16.5339 7.05586 18.56
Ti 18.9665 2.81297 16.407
O 16.8148 0.59612 17.1588
O 16.9939 4.9299 15.032
O 15.3496 3.02142 18.5151
O 10.2819 1.37865 16.8045
O 12.6935 7.36148 15.6302
O 10.5555 6.07189 18.0855
O 16.6988 8.80267 16.0762
Ti 13.5753 8.44267 15.7287
Ti 13.6947 6.49041 16.3779
O 12.479 0.127399 15.482
O 13.8409 5.97979 17.6445
Ti 14.2636 4.90981 16.6968
Ti 15.8821 4.32821 18.4158
O 10.9575 8.58826 17.2345
O 17.886 5.51795 17.0234
O 14.4987 8.63436 14.5359
Ti 17.2217 5.86056 18.1308
O 9.9378 3.16824 14.926
O 18.4865 8.10664 17.2822
Ti 13.8856 9.04042 18.8314
Ti 11.9039 8.65556 18.1868
Ti 18.5208 6.7374 16.4585
O 15.1209 9.4671 18.3407
O 15.6861 2.49638 14.4664
O 13.4034 12.2751 0.780784
O 11.8544 13.8459 2.52643
O 13.4154 10.3681 3.8777
O 10.8326 11.6473 1.03203
O 10.807 10.5759 3.83281
O 12.2744 14.5823 0.177446
O 16.6571 18.4192 3.91907
O 12.5384 9.61383 -0.226734
O 15.3204 16.9554 2.23702
O 15.4193 14.3252 1.2512
O 14.2934 12.885 3.2687
Ti 14.3322 11.4753 3.67118
O 16.1499 11.3641 0.859582
O 15.6565 11.9322 3.55048
O 17.8608 14.0436 2.47588
Ti 18.2184 13.1839 1.31194
O 17.6409 10.1027 2.73054
O 18.4988 16.434 1.5229
O 13.3409 18.509 3.52628
Ti 11.7598 18.3289 0.725431
O 13.2471 15.8792 3.73051
O 12.9301 17.5616 1.15431
O 9.60858 16.0853 3.39478
Ti 12.4591 18.1937 2.44291
O 11.0934 18.3046 1.90961
Ti 16.1825 17.4546 3.10989
Ti 15.5653 15.5676 1.9134
O 16.2185 18.456 0.497997
O 16.4397 16.0136 3.02574
O 9.48482 12.4818 3.93412
O 13.8917 11.4504 8.22282
O 11.4216 12.5223 8.36589
Ti 11.2742 11.6975 7.05524
O 12.6732 14.0816 5.5061
O 11.0093 10.3847 6.48621
O 12.1519 11.4845 5.95926
O 13.809 14.2473 7.93222
O 18.2948 11.4212 6.67076
O 16.5613 10.6179 8.90128
Ti 18.3422 12.2291 5.29379
O 15.756 10.9344 5.99584
O 16.2066 13.0967 8.03222
O 17.0948 12.9938 5.17642
Ti 16.0814 12.0947 4.99573
O 9.50143 14.3827 5.68581
O 11.2197 17.5 5.16023
Ti 11.1932 11.0587 5.05239
Ti 10.2192 14.955 8.483
O 13.4854 16.5216 6.4318
O 10.9886 15.8908 7.23265
Ti 14.4143 17.6151 6.15055
O 12.5645 18.0366 8.46061
Ti 13.1156 10.4074 5.29216
O 10.2553 19.082 7.1221
O 18.6038 17.1809 8.43714
Ti 18.4539 15.6278 6.01724
Ti 15.7928 18.5468 5.2527
O 15.3474 14.8842 5.14636
O 15.827 18.001 6.51783
O 15.9829 15.9276 8.82196
O 17.9982 14.8174 7.36278
O 17.5256 16.2826 5.23314
Ti 8.88074 13.3284 4.86405
Ti 16.3795 15.7099 4.47864
O 13.0456 13.8578 10.9295
Ti 13.6789 11.2083 11.3149
Ti 12.0109 12.6718 11.1389
O 10.6973 12.7504 12.1016
O 12.4174 11.4343 10.5324
Ti 13.8159 11.5821 13.0249
O 13.4598 10.3163 12.5208
Ti 9.54014 12.5991 11.2253
O 18.5799 11.8333 13.7447
O 12.574 11.1315 13.6645
O 12.3926 14.122 13.4325
O 10.7494 9.41273 11.9152
O 14.5407 12.7473 13.0186
O 14.8755 11.9106 10.8286
Ti 13.7022 10.0999 14.2162
O 16.2036 9.93817 12.598
O 17.6361 11.0481 11.1496
O 17.1603 13.3362 12.7184
Ti 17.1471 10.0682 10.1715
O 18.066 13.7462 9.98314
O 9.83599 11.5067 10.0985
O 10.1479 15.6087 13.651
Ti 12.8931 17.4119 9.63871
O 9.88652 17.9463 11.9613
Ti 11.4566 15.1949 12.9656
O 11.8018 16.2267 11.867
Ti 11.2373 17.3604 11.3624
O 11.9052 18.3869 10.4869
O 13.7334 16.4079 10.0777
Ti 17.586 16.9025 11.5334
Ti 14.7182 18.353 13.5008
O 15.6457 14.7123 11.1051
O 13.807 17.8985 12.3784
O 18.1736 15.6675 12.1403
O 16.2148 17.2699 11.2724
Ti 18.5147 16.1638 13.5439
O 15.7318 15.7133 13.4825
O 15.9461 19.0575 13.5953
Ti 19.1571 17.0601 10.0201
Ti 16.3358 18.5071 10.4306
O 11.2558 14.7824 9.43578
Ti 10.2541 11.1472 16.1485
O 11.7008 11.0266 16.0458
Ti 12.5202 12.7656 16.2534
O 13.9372 12.658 16.0213
O 10.345 13.1751 14.5145
Ti 9.6816 14.5729 17.6755
O 14.1233 9.73027 15.7193
Ti 9.8163 11.8406 14.6129
Ti 10.9385 13.4746 15.7122
O 18.1657 17.517 17.9259
O 10.0798 13.4635 18.3803
O 11.8877 14.0974 16.7596
O 9.87431 16.053 16.9416
O 15.5324 15.2243 15.8297
O 17.4311 11.0115 17.6712
Ti 17.0106 10.4916 16.3259
O 18.3284 13.1384 16.3523
O 16.517 11.3427 15.2239
O 9.8061 12.4162 15.8736
O 14.5333 17.6262 14.9653
O 14.3227 14.4346 17.8639
O 11.2673 18.6968 18.4843
O 16.753 15.5745 18.3932
Ti 11.3573 14.0621 18.3191
Ti 10.3786 16.9663 15.9453
O 11.9052 16.3338 15.3093
O 12.4438 16.3522 17.7855
O 15.1909 17.3773 17.2227
O 18.9238 9.23426 14.7686
O 18.1625 15.5012 14.8041
O 16.977 17.6153 15.5115
Ti 9.83343 10.0225 14.604
Ti 18.3856 17.5524 16.4972
Ti 15.8392 18.2449 14.6837
Ti 17.1314 11.8474 18.962
Ti 13.6906 18.6995 15.0176
O 10.0432 18.1286 15.1194
O 17.9109 13.2282 19.0445
Ti 15.3977 15.0083 19.0599
