600
17.7116301554 17.7116301554 17.7979377334
Ti 1.40599 3.22746 2.74559
Ti 3.49239 2.95692 2.64371
O 0.999022 2.73522 4.00892
O 1.28778 2.63871 1.09704
O 2.49115 3.48004 3.63023
O 4.70743 1.1328 1.56561
O 3.30191 1.94205 3.77769
O 3.88831 2.60353 1.22326
O 4.67086 3.8791 1.92849
Ti 1.38956 1.25391 0.69613
Ti 3.88991 3.93866 0.706822
Ti 1.34399 4.07131 0.631572
O 0.53508 1.3315 1.88942
Ti 6.4873 2.65384 4.78703
Ti 7.3158 2.32742 2.46772
O 6.0478 2.12398 3.56609
O 7.95882 0.918943 1.46766
O 7.61609 2.19594 4.06169
O 7.16375 2.24256 0.658925
O 7.63626 3.66216 1.30333
O 9.06945 2.20461 3.1982
Ti 8.88863 2.08571 4.66881
Ti 1.64941 6.59227 3.23969
Ti 3.78876 6.8662 3.18757
Ti 1.40406 7.84108 1.30674
Ti 3.47249 7.65975 0.955814
O 1.2481 5.60563 4.26417
O 2.85479 6.16064 3.91601
O 4.30029 6.67556 4.47623
O 4.26175 6.6663 1.58506
O 1.3452 8.04986 2.70155
O 3.84073 8.09353 2.25091
O 0.659715 6.74829 1.86644
Ti 3.89714 9.12568 3.35077
Ti 1.69987 9.14367 3.44861
O 4.22792 9.24421 4.81437
Ti 7.43479 8.47653 2.82484
O 6.68724 7.57969 2.0294
Ti 7.18975 6.53336 2.84536
O 8.02811 6.42015 4.27771
O 7.58134 6.23425 1.50664
O 6.59032 5.66067 3.96948
Ti 6.93545 8.4774 4.83326
O 7.92712 8.57024 1.45124
O 8.11925 8.70925 4.19013
Ti 2.39338 1.55848 7.54678
Ti 2.01507 3.88545 7.68755
O 3.7601 1.21084 7.91797
O 2.1937 2.6987 6.49313
O 2.50396 1.4054 9.00314
O 1.29933 1.19145 6.65131
O 2.57038 4.02 9.18219
O 1.71968 4.26423 6.21486
Ti 4.09608 1.58414 9.34744
Ti 1.86882 3.25307 5.23302
O 1.30884 5.09624 8.76124
O 4.01269 5.03325 8.80536
Ti 6.61233 1.50565 6.98088
Ti 6.49514 3.51759 6.96384
Ti 7.6023 1.26816 8.87237
Ti 7.11798 3.48496 9.19787
O 5.90636 2.44537 6.30204
O 7.9622 1.24899 7.4477
O 6.28743 4.28264 8.28951
O 6.13898 3.92187 5.65137
O 7.81041 3.61095 7.87359
O 8.60662 4.08071 5.33924
Ti 8.81926 1.74505 6.53316
Ti 8.54722 3.57998 6.67408
Ti 2.83795 7.55648 7.65736
O 2.58577 6.48934 6.75167
O 1.45643 9.3886 6.40681
O 2.59785 8.11571 6.31499
O 0.674419 8.42798 8.81777
O 3.862 7.77018 8.68618
Ti 3.10307 6.81487 5.37127
Ti 2.36916 9.19131 5.27525
O 2.30363 7.73696 9.18763
Ti 9.12264 7.53669 7.26332
O 6.3568 8.70194 8.08881
O 7.88055 8.07308 7.84478
O 6.2071 7.75797 5.76719
Ti 9.18899 8.87629 5.10447
O 9.4272 5.35392 9.18298
Ti 8.96848 6.76767 5.25717
O 6.449 6.41487 6.66897
Ti 6.95699 7.69148 9.14036
Ti 6.70824 7.71733 7.08176
Ti 6.85483 6.55897 5.08346
Ti 1.17894 2.27926 11.4922
Ti 3.70617 2.5639 11.8229
O 0.989412 2.80409 12.8351
O 2.41999 2.11456 12.2672
O 3.82705 1.9507 13.1456
O 4.50907 2.57499 10.2936
O 4.40205 4.0272 11.2949
Ti 3.8258 3.8863 9.95111
Ti 1.26529 1.64959 9.70717
Ti 1.19781 3.97264 9.74318
O 5.12061 0.978651 10.2263
Ti 7.12837 2.68597 11.5795
O 6.31685 1.92986 12.4384
O 8.32356 0.841829 10.1018
O 7.79755 2.52174 12.8164
O 7.35568 2.33012 9.99691
O 7.07817 3.88456 10.5521
O 9.25141 1.73378 12.2789
Ti 9.04298 2.35912 13.612
O 9.05713 4.83829 12.3332
Ti 6.49443 2.54096 13.7361
Ti 1.22429 6.91313 11.9679
Ti 3.13551 6.92626 11.9717
O 0.884908 5.56286 13.5896
O 2.18451 6.37828 12.8096
O 4.18258 5.24066 13.5972
O 4.08838 6.57645 11.0201
O 3.71173 8.10561 11.5245
Ti 1.07075 9.13289 12.3622
Ti 3.22247 9.20435 12.1615
Ti 1.05481 7.71428 10.102
Ti 3.40509 7.51443 9.9811
O 0.520514 8.05587 11.5837
O 6.30642 5.68343 12.2184
Ti 6.99437 8.90832 11.3762
O 7.84668 6.11113 12.4407
O 7.48263 9.46457 12.8633
Ti 8.66627 5.77438 13.5681
Ti 8.49465 8.45985 13.1699
Ti 6.53761 8.47844 13.3189
Ti 6.63685 6.36285 13.4952
O 7.29902 9.34512 9.99273
O 5.92809 9.30878 12.3573
O 7.14932 7.73205 10.5686
O 6.63679 6.3616 9.7272
Ti 7.04473 6.51372 11.3655
Ti 2.34811 1.44778 16.3912
Ti 1.91658 3.8285 16.6217
O 1.63157 2.58923 15.9548
O 1.42739 1.0432 15.2289
O 2.63429 4.53485 18.0239
O 2.88166 3.63135 15.4964
Ti 3.70303 1.43786 18.2086
O 3.80028 1.14655 16.7547
Ti 2.26884 2.35412 14.1583
O 1.20321 5.04201 17.3955
Ti 6.66196 0.94842 15.9559
Ti 6.19409 3.44187 15.8884
O 6.34592 2.17592 15.3173
O 6.53376 4.31787 16.9087
O 5.55886 3.40129 14.6556
O 8.00542 3.6168 16.3705
Ti 9.17069 0.763104 16.0026
Ti 8.84203 3.04913 15.4344
Ti 7.30164 3.40856 17.7305
Ti 7.38395 0.964191 17.9986
O 5.72988 0.640896 14.6927
O 4.18729 4.85074 17.2995
Ti 1.82089 6.50661 14.2162
Ti 2.55287 7.56408 16.5138
O 2.60154 6.37999 15.4411
O 2.19271 7.70028 17.8935
O 1.64151 7.71012 15.0402
O 1.19412 9.05927 18.2098
O 3.58063 8.25937 17.2103
O 1.6825 9.24921 15.7566
Ti 1.61179 9.07393 14.3939
O 6.28107 7.50022 14.2869
O 7.3901 7.48962 16.7625
O 9.08858 7.84464 16.9775
O 8.82123 7.58602 14.2073
Ti 6.48151 6.96698 15.8324
O 5.89858 6.94806 17.1342
O 6.34065 5.94782 14.8161
O 8.85417 5.92093 14.9569
Ti 8.48697 7.23004 15.734
Ti 6.89308 7.03087 18.2636
Ti 2.15677 12.9489 4.76062
Ti 1.0067 12.617 2.53974
O 2.75405 9.8411 4.08649
Ti 3.22731 12.6098 2.61274
O 0.744228 11.415 1.79754
O 0.721295 13.0538 3.86303
O 2.13865 13.3641 3.06409
O 3.24833 11.3044 1.97353
O 3.59355 13.2529 3.85627
O 4.22373 12.4615 1.27279
O 1.14714 10.2742 4.21866
O 4.87664 9.50499 2.2928
Ti 6.05801 12.0885 4.76318
O 8.73045 12.8546 3.33368
O 9.39744 9.80613 3.84458
Ti 6.88174 12.041 2.56427
O 5.72623 11.8979 3.33269
O 7.86673 11.0416 2.03207
O 7.0533 12.7603 3.71514
O 7.07687 12.2625 1.0862
Ti 8.10638 12.6039 4.67206
O 6.758 9.49074 3.89479
Ti 6.77001 11.2007 0.290995
O 0.645859 16.5369 1.7195
O 4.3679 16.3936 0.925344
O 2.41496 15.7997 3.57089
O 3.49882 17.0273 3.52173
O 4.48362 15.0908 2.04269
Ti 1.10888 15.2309 1.04497
Ti 3.1145 16.1615 4.9008
Ti 1.26143 15.8713 2.78614
Ti 3.62498 15.1873 0.778312
Ti 3.61092 15.837 2.79672
O 1.34332 17.8477 4.27039
O 2.31369 14.7739 0.576854
Ti 7.63392 16.0907 2.47054
Ti 6.9272 16.3229 4.35192
O 6.28547 16.9287 3.17693
Ti 8.98293 16.6847 4.67354
O 7.86714 16.1001 0.934692
O 7.93265 17.0876 3.57933
O 7.97371 14.7724 2.0315
Ti 2.56932 12.6327 7.20093
O 1.74194 13.4755 6.36639
O 2.47256 12.1819 8.54192
O 2.28011 11.9278 6.02347
O 1.04635 11.0847 8.40606
O 3.74472 13.0249 7.94338
O 3.9789 10.1137 7.3408
Ti 3.5305 12.7517 9.49527
O 8.38685 11.496 5.76012
Ti 6.2399 11.8583 7.0933
O 5.44102 12.7234 5.92619
O 5.99739 11.4599 8.61901
O 5.98416 11.1398 5.84476
O 7.27912 12.373 8.0738
Ti 7.93961 12.2977 6.90008
O 8.50548 13.1629 5.92927
O 8.93098 10.6819 8.62823
Ti 6.92927 12.191 9.4518
O 4.83509 18.0808 5.31179
Ti 3.52586 15.9607 7.3996
O 0.963999 17.0776 8.30743
O 2.95123 16.6636 6.2898
O 2.92133 15.4392 8.86701
O 3.92825 15.2841 6.11112
O 1.34724 14.5451 8.84223
O 4.2904 16.3887 8.7007
O 6.83228 15.0229 5.12359
O 7.81202 14.8007 7.61651
Ti 8.92653 15.4495 6.84891
O 9.31128 15.4221 5.47909
O 6.5463 18.1558 7.94091
O 8.96007 16.7804 6.34562
Ti 6.90127 15.234 6.52588
Ti 7.13007 15.3194 8.7607
O 6.55508 16.4359 5.90582
O 6.1784 14.639 7.8857
O 9.48039 14.4507 7.76657
Ti 1.49707 12.4514 11.9964
Ti 3.66573 13.2669 11.7156
O 1.63288 11.3437 11.1023
O 0.816636 12.7993 13.5078
O 3.59258 10.5538 12.5868
O 2.53503 13.0382 12.8639
O 4.24791 12.1809 10.6063
O 3.93722 13.8346 13.0275
O 3.83899 13.7735 10.3864
Ti 1.52116 11.8384 9.68395
O 4.66722 9.68846 9.96343
O 2.18116 9.73748 13.034
O 0.801973 12.7253 10.7976
Ti 3.41622 12.9794 13.9788
O 9.06627 9.43945 12.2192
O 9.22677 12.9239 13.3394
Ti 7.09316 12.2028 11.8048
O 5.92825 12.0038 12.7398
O 7.87511 11.6619 10.7207
O 7.62615 12.2689 13.2047
O 6.93508 13.0363 10.6641
O 2.9981 17.3502 11.0039
Ti 1.66383 16.4588 12.1227
Ti 3.25376 16.8142 12.3596
O 1.68281 15.1551 11.5422
Ti 3.52243 16.2323 9.92126
O 1.14104 16.5102 10.8143
O 2.19731 17.1357 13.2525
O 3.84523 15.9697 11.4178
O 3.79059 16.9762 13.6635
Ti 1.81927 15.2653 10.0619
O 6.02936 15.1522 10.2474
O 6.08727 16.8951 12.2622
Ti 6.49547 16.2171 11.0945
O 9.38681 16.6509 11.9295
O 7.34346 16.1462 9.90853
O 7.46588 14.8087 13.611
Ti 2.76208 11.8275 16.2206
O 3.5339 12.7161 15.3281
O 2.04459 12.3165 17.5519
O 2.37855 11.5831 14.8562
O 0.767115 11.4046 16.9505
O 2.95783 10.9284 17.3087
O 4.19776 9.52317 15.166
Ti 0.848895 11.9554 18.3056
Ti 3.12321 11.8 18.4319
Ti 6.3075 10.937 16.3979
O 6.11935 12.2825 15.5141
O 5.62928 10.3411 17.6821
O 6.25649 10.6652 14.9125
O 7.26302 10.1228 17.329
Ti 8.50797 11.9663 14.2977
Ti 8.42735 10.7924 16.4336
O 8.56771 12.055 15.7937
O 8.99484 10.3879 17.748
O 8.82212 10.6166 14.9988
Ti 6.46086 11.8342 14.1853
O 2.60326 18.283 17.8127
Ti 2.68749 16.3279 14.6403
Ti 1.99607 15.3284 16.8726
O 2.38089 16.5271 16.055
O 2.4682 15.0528 15.2947
O 0.910851 14.5798 17.6077
O 3.54256 14.3469 17.3605
O 0.838998 17.9947 17.3566
Ti 8.3556 15.1057 14.6524
O 8.67689 16.0092 15.6592
O 7.88841 18.1081 16.7008
O 6.37248 17.8073 17.4048
Ti 7.20457 15.0843 18.0474
Ti 8.28747 14.7966 16.308
Ti 6.53632 15.1394 14.546
Ti 6.26757 14.9167 16.4069
O 6.17675 16.1314 15.5384
O 6.01535 14.3787 17.9702
O 5.27836 14.8256 15.1211
O 7.38874 14.1295 17.0742
Ti 11.6102 2.48184 2.5039
O 11.5341 1.04028 2.05676
O 11.2782 3.05424 4.11758
O 10.4092 1.77352 1.00816
O 12.8535 2.83459 3.49031
O 10.9861 3.28141 1.37134
Ti 12.3448 2.29714 4.68708
Ti 11.6796 1.11733 0.604644
O 13.3854 4.67918 1.51691
O 9.47232 4.83839 2.9717
Ti 15.0865 2.62505 2.159
O 14.1717 1.5245 1.79812
O 15.1264 3.72981 3.25063
O 14.5691 2.82908 0.816329
O 16.2461 2.59879 2.95367
O 18.0956 3.94852 1.68652
Ti 16.0166 3.27686 4.16579
O 12.954 9.1124 3.7614
Ti 11.9828 6.13661 3.06004
Ti 12.2632 8.12594 2.99799
O 11.541 5.97785 4.41852
O 11.3115 6.00175 1.7481
O 13.0414 5.51021 3.84061
O 12.3735 7.31012 1.93361
O 11.48 8.52786 4.07961
Ti 12.0764 6.63636 0.702509
O 10.4379 8.76635 1.25558
Ti 15.5352 6.85651 0.965714
O 15.4582 6.08914 4.57829
Ti 15.7034 6.44372 3.20867
O 14.7899 6.86303 2.21129
O 16.6895 8.76553 3.74011
O 14.4737 8.61 1.85156
O 15.2496 8.52031 4.56948
O 16.8539 6.70373 3.93543
Ti 15.2488 8.19438 3.04129
O 15.8868 5.71984 1.73665
Ti 12.2621 1.09116 6.79487
Ti 12.6605 3.30756 6.91535
Ti 11.6358 1.10381 9.08833
O 12.9784 2.10615 6.17794
O 12.4239 0.78246 5.4094
O 11.1029 0.938247 7.7963
O 12.7505 4.10754 8.36559
O 13.3624 3.70902 5.69055
O 11.3674 3.50364 7.80197
O 9.82974 1.3086 5.52655
O 9.5746 2.90031 5.98054
Ti 11.9785 3.13036 9.00082
O 14.9214 2.84223 9.64214
Ti 15.9322 1.57485 6.5372
Ti 16.1843 3.73352 6.57866
Ti 15.1323 1.67318 8.83727
Ti 15.6149 3.8006 8.84291
O 15.7748 2.7964 5.71057
O 16.755 1.46683 5.27604
O 16.7564 3.90623 7.83537
O 16.8278 3.91476 5.35505
O 15.2364 4.44222 7.42195
O 16.4662 1.14464 7.79941
O 14.8792 0.980216 7.30462
Ti 12.7361 6.31116 5.22906
O 9.91592 7.70209 5.75071
O 11.5431 6.69536 8.01125
Ti 12.7541 6.90103 7.15089
O 13.2304 7.50946 5.98261
O 13.5402 5.99823 6.47325
O 12.7671 7.58235 8.64633
O 12.2385 8.72377 6.55926
Ti 12.5204 8.39024 5.16763
O 9.47863 6.23384 6.49323
Ti 11.8219 6.80428 9.40435
O 9.50126 8.07728 8.558
O 9.62764 9.32966 6.44413
O 16.6519 6.49154 8.89213
O 17.5843 6.21521 6.51933
Ti 16.6207 6.82982 7.50747
O 17.1627 7.77218 6.26322
O 15.3704 7.06264 8.07068
Ti 16.7493 6.66114 5.47775
Ti 16.5499 8.32504 5.08358
Ti 12.1084 1.82314 11.5086
O 10.8771 0.865143 10.3716
O 11.6705 0.656121 12.4037
O 11.9261 2.21208 10.0515
O 13.3021 1.0584 12.3557
O 11.4496 3.19806 11.4169
Ti 12.3717 1.40012 13.3301
Ti 15.1175 2.509 11.1011
O 14.5667 1.28309 10.0991
O 14.6832 3.21986 12.5627
O 16.1619 2.5258 12.1666
O 15.5796 4.2813 10.2055
O 17.951 1.23491 10.5726
Ti 15.7535 2.97051 13.5056
O 18.0675 4.1409 11.1478
O 18.1993 2.78586 9.99865
Ti 11.2539 6.20414 11.673
O 11.1371 5.82704 13.0332
O 11.7996 5.71603 10.4525
O 12.7332 5.34682 12.507
O 10.8573 7.08869 10.6472
Ti 12.4449 7.70385 13.7872
Ti 11.5227 7.90088 11.6347
O 11.303 8.14321 13.126
O 11.2541 8.73067 10.4746
O 12.8063 7.68236 12.4304
O 14.6919 8.86986 13.3074
Ti 15.4794 7.06091 9.61853
O 18.1485 6.58716 10.925
Ti 16.1588 6.85241 13.2608
O 17.0741 7.78312 13.8207
O 15.4201 7.86144 10.8194
O 16.0424 5.63273 12.5926
Ti 15.2719 6.73029 11.7471
O 14.806 6.40467 13.2861
O 14.2883 6.60296 10.6341
Ti 16.007 8.63303 13.3177
Ti 14.9886 8.7921 11.8805
O 14.031 8.90877 10.6705
Ti 12.7096 0.817885 16.2066
Ti 12.1387 2.84021 15.4884
O 12.1633 1.49087 14.8936
O 12.855 1.38592 17.5238
O 12.7527 3.59012 16.6551
O 12.253 2.98914 14.0306
O 11.0634 3.13012 16.5409
O 9.79363 3.38172 14.4799
Ti 10.9878 2.72551 17.8693
O 9.55585 1.91342 15.0723
Ti 15.1771 3.65313 17.737
Ti 15.977 1.54908 16.1481
Ti 15.985 3.71026 15.9487
O 15.7468 2.56614 15.1869
O 16.5588 1.52109 17.7192
O 16.3384 0.939624 14.9162
O 16.45 4.14871 17.3523
O 16.6823 3.88735 14.6415
O 15.0209 4.68617 16.8108
O 15.2255 0.74522 17.2281
Ti 15.2531 1.62448 18.2968
O 9.59763 5.20086 17.7207
O 10.9296 9.11733 15.4385
O 11.5439 7.20481 17.2279
O 12.9022 7.03811 14.9138
Ti 12.8919 6.22967 16.0173
O 12.8446 6.05636 17.4064
O 13.2706 5.41721 14.9181
O 13.862 9.40501 15.977
Ti 12.3162 5.90521 13.8746
Ti 16.4656 6.84503 16.8377
O 17.2171 6.18319 15.8876
O 16.5496 7.76701 17.8918
O 15.1731 7.1731 17.211
Ti 11.516 11.2697 1.15841
Ti 11.425 11.7305 3.37128
O 11.8521 10.7084 2.39359
O 10.8509 11.9809 4.72291
O 10.5016 11.5204 2.07634
O 12.1847 12.8225 4.24247
O 16.5222 10.0412 1.15907
O 16.2898 11.4219 3.55077
O 14.768 11.4898 4.30549
O 14.7612 12.9477 1.84646
Ti 15.0541 11.7855 2.94926
O 14.2102 11.4227 1.62319
Ti 16.244 11.7848 5.02929
O 17.6931 12.767 1.3184
O 12.9451 15.4881 3.51725
O 10.8288 15.9793 1.64726
O 11.6286 15.9965 4.33765
O 10.897 14.4011 2.156
Ti 11.6264 15.4762 3.01416
Ti 11.4922 14.8892 0.954988
O 9.65804 17.3708 3.57993
O 17.8646 15.1515 2.40142
O 16.3408 17.5518 3.40178
Ti 15.5004 15.8783 0.737422
O 14.4451 16.7091 1.32417
O 14.8417 17.2894 4.11606
O 15.2019 15.4296 2.08062
Ti 15.2493 16.7999 2.80098
Ti 16.1299 16.7088 4.87281
Ti 12.2933 11.1616 7.57844
O 12.2349 12.4535 7.05804
O 12.8346 10.4481 8.84915
O 12.9307 11.1938 6.30827
O 11.3314 10.131 8.33474
Ti 12.0372 12.0961 5.48338
Ti 11.6664 11.0527 9.34285
Ti 16.4051 12.1523 7.08846
Ti 15.1416 12.0924 9.29122
O 16.7674 12.9462 5.99957
O 16.3613 12.3907 8.72738
O 17.1883 11.3878 6.17918
O 15.0954 11.8207 7.85906
O 16.3839 9.63974 7.86344
O 9.93092 16.5571 9.06047
O 13.4787 15.3536 8.88391
O 13.6713 16.238 6.37633
O 13.3623 14.6162 6.12653
Ti 13.1725 15.2865 7.37476
O 11.9808 14.9101 8.47629
O 12.5927 18.0411 8.28475
Ti 12.8433 15.5571 5.10377
O 16.6957 15.3257 8.53685
O 17.1783 16.8526 6.14339
Ti 16.4627 16.0642 7.072
O 15.6661 16.5707 8.31748
O 16.2932 15.531 5.76003
Ti 11.3416 12.0749 11.3899
O 10.6204 11.2003 10.5943
O 11.0338 10.9289 13.2386
O 11.512 12.4185 10.0382
O 11.7776 12.4179 12.6594
O 18.2595 9.98838 13.3697
Ti 14.7614 12.6444 11.362
O 14.5449 11.4859 10.5997
O 14.4537 13.376 12.6922
O 14.194 13.0166 10.1543
O 15.9576 12.7367 12.2704
Ti 15.4282 12.7541 13.5648
O 15.7817 9.88396 12.7561
O 17.0751 10.1734 10.3364
O 13.3036 16.3565 13.061
O 11.9284 16.1836 10.8838
O 11.7342 15.9783 13.4482
O 12.4409 14.6415 11.2853
Ti 12.3854 15.7262 12.2064
Ti 12.4132 15.3176 9.77937
O 15.6319 15.3667 13.8282
Ti 16.0232 16.0466 9.56862
O 17.6319 17.9695 13.0027
O 15.1985 15.5305 10.9264
O 17.1032 15.2338 12.8341
Ti 16.3559 15.7134 11.7644
O 16.2269 16.8015 10.9032
Ti 11.7138 11.8626 14.1468
Ti 11.8684 11.6542 16.5787
O 11.1094 12.474 15.3043
O 12.1008 12.0751 17.9156
O 12.6205 11.7999 15.211
O 11.6103 10.5689 17.4757
O 9.48129 13.0454 18.0078
O 14.4375 12.5587 17.0067
Ti 15.4622 12.2957 16.0694
O 16.0218 13.1882 14.9424
O 15.8518 11.8718 17.2703
O 15.2718 11.5449 14.6613
Ti 14.7757 12.2161 18.4276
O 16.7389 9.6782 15.8302
O 12.0623 17.6743 17.2098
O 13.2489 15.9278 15.8118
O 13.013 14.5825 18.0796
Ti 12.719 15.1373 16.7785
O 11.552 14.512 17.2698
O 13.5139 14.3623 15.0764
Ti 12.9475 15.5628 14.4001
O 9.49339 17.7078 17.287
O 9.94544 17.8142 14.5378
O 9.43873 14.5902 15.3639
O 13.6981 18.2697 15.0376
Ti 17.002 15.4924 14.3282
O 15.5277 15.1208 17.0134
O 17.777 14.8408 15.3424
O 16.7181 16.1215 17.7402
O 17.5052 16.4859 15.2086
Ti 16.7261 15.69 16.3847
