600
19.3054330505 19.3054330505 19.3995071224
Ti 0.310043 6.49048 4.16488
O 1.44245 1.30193 1.87758
O 3.86922 2.1321 3.08878
Ti 3.8354 1.01735 4.03299
O 0.407051 3.41624 3.4509
O 9.22729 0.483527 3.11939
Ti 8.78954 1.39291 0.805813
O 6.5191 2.67751 2.64735
O -0.181434 7.77126 4.69935
O 5.7801 8.1998 0.028023
O 9.37322 2.38526 1.7503
O 3.01262 6.3654 4.77481
O 7.47325 0.731225 0.903729
O 8.52231 6.64042 -0.272429
O 4.51122 -0.169455 4.19753
O 2.83538 5.3351 2.19974
O 0.490052 5.85381 2.94625
O 5.15166 0.297418 1.71885
O 2.66846 7.86574 1.04828
O -0.269637 0.734652 0.0210714
O 6.95205 6.83376 4.4489
O 7.93395 8.21175 2.19141
O 5.32478 5.11024 3.4945
O 6.09629 5.19641 1.18053
O 4.90785 7.21128 2.62547
Ti 5.86817 6.44303 3.59528
Ti 7.04581 8.04179 3.25641
O 9.38823 5.7475 3.74029
O 0.92337 1.26453 4.65138
O 8.78752 3.16158 4.38327
O 7.03338 2.63938 -0.191647
Ti 3.20577 0.875818 6.85108
Ti 8.93492 7.20598 6.42882
Ti 1.61462 0.263924 7.97398
Ti 5.34689 4.55236 5.2622
O 7.08589 0.96414 5.02156
O 3.9844 1.56759 7.85167
O 3.33153 0.857398 5.38256
O 9.32918 4.37343 8.72821
Ti 1.96433 0.696106 5.4276
O 2.79926 4.7431 8.07904
O 1.64827 1.35603 9.08178
Ti 0.322735 1.7146 8.94593
O 2.48126 3.54589 5.20471
Ti 4.07878 9.48291 5.97319
O 8.50601 0.437243 8.4945
O 6.58371 2.76585 7.52203
O 0.0432051 3.77539 6.70057
O 5.29418 3.22007 5.0893
Ti 9.03342 5.61416 8.24112
O 0.753172 6.619 5.56604
Ti 5.06792 6.93426 6.26692
Ti 3.57184 7.52595 5.3653
Ti 7.59598 7.81569 5.20149
O 4.54489 8.23926 6.11376
O 0.61289 0.0985687 9.00041
Ti 6.79083 5.65069 5.44896
Ti 6.1548 8.71699 6.08192
Ti 5.33794 6.98372 8.66544
Ti 7.06694 7.79727 7.46171
O 5.58366 7.87509 7.3723
Ti 4.19185 8.40872 7.49513
O 7.90665 5.02894 6.02142
O 8.13324 6.63427 7.71127
O 8.97769 8.14079 5.42616
O 6.02256 5.0312 8.46199
Ti 7.01402 6.13361 8.51905
O 5.23249 5.53775 6.16374
O 6.8859 9.35243 7.419
O 6.14032 6.354 9.54158
O 6.57212 8.59066 4.63151
O 2.5523 8.43302 4.43648
Ti 1.2231 8.13059 4.95018
Ti 8.83129 2.15875 13.1564
O 0.407848 2.88242 11.0556
Ti 2.45934 -0.22418 11.1362
O 2.23718 2.94542 13.0998
Ti 8.20512 8.18577 11.4135
O 3.72171 0.497109 10.2853
Ti 9.3616 6.17097 11.4592
O 5.997 4.76226 12.5512
O 4.89477 7.16217 13.8336
O 8.98479 9.25145 10.5669
O 9.11347 3.50192 13.8671
Ti 6.83828 3.15146 10.5055
Ti 1.27457 0.50856 10.1349
O 5.8719 2.34162 10.0173
Ti 5.84001 1.98717 11.419
O 7.11475 1.70585 10.9259
O 7.33434 4.31363 10.7543
O 5.11828 0.119081 12.6344
Ti 9.42522 6.24494 13.4724
O 4.97727 8.18768 10.0397
O 4.63254 2.36414 12.3419
O 8.26224 1.20418 14.3419
O 8.34732 5.61894 12.6932
Ti 1.55578 2.53883 10.142
O 3.947 6.1177 10.9651
O 2.4245 6.41436 13.4951
Ti 0.307796 8.98929 12.074
Ti 1.03018 6.79966 10.7786
O 0.854252 8.06099 11.2055
O 3.18308 3.20899 10.5299
Ti 2.09533 8.56418 11.5438
O 3.36821 8.45221 12.044
Ti 0.227078 8.79302 13.9775
O 0.817899 5.5164 11.1502
Ti 4.86964 6.66266 10.1574
Ti 8.90534 4.53397 9.96287
O 6.97256 7.60971 11.8958
Ti 6.57659 4.95071 9.86863
Ti 3.89418 9.31863 9.72348
Ti 4.13365 0.0551563 11.5657
O 1.24938 0.111094 11.5841
O 9.39631 7.55529 14.0655
Ti 8.824 4.21372 12.6788
O 0.304484 5.06994 13.9679
O 9.25501 1.38611 11.9043
O 9.15397 4.61992 11.3458
O 4.04836 4.36844 14.5023
Ti 4.92915 0.595142 14.1039
O 2.18143 6.59498 9.60267
O 1.56052 2.18886 15.6266
Ti 3.74823 3.78045 17.5252
O 7.30306 8.15617 17.3306
Ti 3.72733 -0.234289 18.5622
O 2.29277 4.07759 17.626
O 2.07597 9.59188 15.8218
O 6.40667 -0.344218 16.3427
O 5.41598 1.85477 14.439
O 4.82675 0.721497 18.6054
Ti 7.34636 -0.0129399 17.2291
O 4.23575 2.86012 16.5636
Ti 7.68851 2.28883 18.0544
O 6.93115 2.0231 16.8773
O 9.41208 4.32853 16.0183
Ti -0.043374 0.204301 18.1645
O 6.6886 4.27396 15.2545
O 4.07783 0.268104 15.2589
O 0.534582 7.79114 14.8438
Ti 4.23806 7.58705 15.005
O 6.38161 5.65462 17.511
O 4.51907 7.27692 16.3545
Ti 4.375 8.61494 16.838
O 1.31148 6.34169 18.2331
Ti 3.02627 6.82198 15.8807
O 2.28497 5.86648 15.8451
O 3.20145 8.22291 15.6527
O 6.87205 6.86139 15.2827
Ti 6.20749 8.91268 17.9993
O 9.0554 2.08254 17.5292
Ti 6.67968 5.51446 15.9584
Ti 7.26728 6.65131 17.8486
O 0.0582777 3.35293 17.8378
Ti 9.13598 0.288502 14.6021
O 4.39377 3.79556 18.8181
O 3.86949 6.58613 18.794
Ti 2.57593 7.08004 18.8542
Ti 2.96306 5.17885 14.6487
O 1.54398 10.1202 2.29862
O 3.06914 12.3745 3.48994
Ti 3.73244 9.00751 4.08786
O 1.80188 13.8363 1.28491
O 4.52285 13.452 1.03646
Ti 2.73098 13.5248 4.25562
Ti 3.94765 18.8081 1.52699
O 9.43022 11.0276 2.73761
O 8.32879 12.6742 1.13363
O 5.71217 13.0389 3.71781
O 6.93192 11.138 1.48846
O 8.0554 14.2635 3.26382
Ti 3.27882 15.4871 4.02643
O 7.78801 16.9744 1.29272
Ti 7.3325 17.1389 0.0327429
O 4.57667 16.1544 3.94223
Ti 5.04958 14.9999 1.01502
O 5.38302 16.3036 1.49089
O 2.71025 16.0652 0.413769
Ti 3.68177 16.7174 1.19493
Ti 2.23011 15.2798 1.58911
O 3.52605 17.5585 2.19368
O 2.12926 15.7056 2.83579
O 7.10801 17.8959 3.35494
O 0.144608 12.0619 3.92594
Ti 6.71976 13.9772 3.99828
O 0.787545 17.6626 1.522
Ti 0.328129 10.6375 3.26876
Ti 5.38443 9.33339 4.17283
O 5.40773 14.5858 -0.303874
O 3.81614 10.3528 0.605801
Ti 4.27846 11.3103 3.77844
O 4.5555 9.69055 3.08102
O 2.99353 18.8633 0.333647
O 0.573155 10.5509 5.89511
O 0.441775 15.0333 7.71028
Ti 1.49307 13.714 8.12853
O 3.22182 10.5377 6.28398
O 8.95717 18.6076 5.52868
Ti 2.17709 13.9126 6.02992
O 1.9944 12.7948 7.06537
Ti 4.4093 14.1378 5.86198
O 4.31705 13.4453 7.5268
O 3.21121 14.4395 5.22675
O 1.81764 19.1538 6.55073
O 1.50688 14.1903 4.83165
Ti 2.18103 10.1559 5.5785
Ti 0.72953 15.0324 9.18422
O 1.09919 9.79293 8.82316
O 5.83762 17.8534 6.10045
Ti 4.91307 11.0929 6.0101
Ti 5.40099 12.5206 7.24593
O 6.01206 11.8455 6.28201
O 5.97281 13.7112 8.25406
O 4.98629 16.4097 7.86923
Ti 5.7066 12.6125 5.14257
O 5.6914 14.1081 5.06456
O 4.24138 10.1917 4.7334
Ti 4.02384 12.4534 8.66706
O 0.604077 16.6648 4.97087
O 4.86485 18.3353 8.24952
O 8.1023 12.5653 8.97614
O 2.66681 16.4857 6.86083
Ti 3.66544 15.9819 7.76588
Ti 5.09734 17.4194 7.13035
O 7.98323 14.0245 6.95849
Ti 5.08815 15.0134 8.26045
O 9.01106 10.178 7.26718
O 2.94654 11.7573 9.32662
O 8.21684 16.3005 5.36485
O 7.81237 15.2942 9.33814
O 3.69003 9.62586 8.42147
O 4.15284 15.783 9.1389
O 1.70377 17.2834 9.21347
O 1.86204 13.6926 13.7517
O 0.42917 15.3004 10.6158
O 1.61128 13.9395 9.71689
O 1.03247 11.6113 11.3278
Ti -0.200398 10.7641 13.6024
Ti 4.42783 18.6678 9.57588
O 6.35003 17.1576 10.1885
O 5.16564 9.85364 12.0501
Ti 1.03701 14.114 12.7273
O 3.73983 10.5099 14.1059
O 1.12422 9.9836 13.0708
O 8.10274 10.7135 12.7599
O 6.41757 13.0878 12.1496
O 4.87961 12.3715 10.0226
Ti 7.62089 12.9241 11.4361
Ti 7.7018 11.4948 10.0671
O 8.20521 11.6213 11.3986
Ti 8.82799 12.0424 12.7688
Ti 8.2214 10.2168 11.4014
Ti 5.47205 14.087 12.2152
O 8.1857 14.3301 11.5396
O 5.14184 16.9305 12.1769
O 3.98415 14.4048 11.6882
O 9.07184 16.0524 13.7581
Ti 3.0129 14.4183 12.8803
O 4.52592 14.6123 13.2804
Ti 3.73872 17.3244 12.0733
O 1.89129 15.1491 13.1588
Ti 0.711848 16.8461 10.3914
O 3.277 16.9482 13.4189
Ti 4.00958 15.6191 14.1082
O 2.98705 9.82213 11.0482
O 3.54555 18.2066 10.8897
O 7.50043 18.5173 12.3232
O 0.612826 17.6454 12.9516
Ti 4.54888 15.662 12.1924
O 9.69796 13.0718 13.2268
Ti 2.70556 9.72706 12.8634
O 6.07948 17.7718 14.3041
Ti 5.44605 16.4431 9.34265
O 6.44251 10.5428 10.0497
Ti 2.20511 10.9253 16.2855
Ti 4.14764 11.9145 14.691
O 0.572841 12.4453 18.6288
O 5.35833 12.7436 14.8378
O 3.00086 11.965 15.9224
O 5.08662 9.56264 17.4356
Ti 0.801514 11.2199 17.963
Ti 1.60814 14.9432 14.5832
O 0.84766 11.0557 16.5684
O 2.76868 13.8793 18.2664
O 0.469954 15.2459 18.8356
O 6.78563 15.0068 14.7351
O 6.23675 11.5039 17.9234
Ti 7.38557 13.834 15.5171
O 3.62045 18.5207 17.2215
O 6.31518 10.0673 14.7989
Ti 6.28021 11.4028 15.1243
O 6.87107 12.5398 15.5937
O 8.35906 16.6401 16.0054
Ti 5.69231 13.329 16.092
Ti 9.45883 13.3778 14.5382
Ti 6.78739 14.9986 18.7537
Ti 4.18222 14.0813 18.1454
O 2.01772 15.3664 16.0605
O 5.06832 13.9429 17.1447
O 1.43437 18.1101 15.6118
Ti 2.19215 18.0819 17.1551
O 8.45128 18.9408 17.942
O 9.02707 9.95563 15.4709
Ti 1.37312 16.663 15.8989
O 1.39421 17.7024 18.3166
O 4.18638 15.7121 15.4445
O 4.54562 16.2769 18.0731
O 7.1475 16.4659 18.0349
O 0.299227 15.5714 15.4289
Ti 3.15139 9.44718 14.7402
Ti 5.36079 18.9401 15.476
O 8.28368 14.1068 18.298
O 8.91205 14.1561 15.5752
Ti 4.56228 15.3875 16.8675
O 0.354226 13.4946 16.3735
O 1.55841 9.96419 19.0318
O 8.85539 10.5233 17.7566
Ti 7.37908 19.1425 19.1521
O 6.21843 17.9733 19.145
Ti 9.1832 15.4173 19.0237
Ti 12.1189 2.88184 2.4225
O 13.3759 2.13437 2.54007
O 15.5918 2.38219 0.366496
O 11.9387 3.32583 1.0279
Ti 10.7355 2.3805 0.992568
Ti 18.3843 7.9407 3.30308
O 15.763 8.85015 2.43382
O 11.1822 3.31523 3.37475
O 9.83888 4.779 1.62519
O 15.055 4.1408 3.51176
O 17.2452 2.37933 2.92999
O 18.9558 3.30453 1.14862
O 16.6808 4.93542 1.5211
Ti 12.6174 8.08893 4.32225
Ti 12.9637 8.04733 0.110081
Ti 15.901 6.15605 1.36329
O 13.2045 5.84548 2.41304
O 13.3515 8.51648 3.06855
Ti 13.3366 8.97069 1.77961
O 12.2114 9.0651 0.62336
Ti 11.0646 7.72962 0.318694
O 10.0016 8.78124 0.143319
O 13.8955 9.14922 0.392188
O 11.0458 6.41428 0.724199
Ti 13.6251 7.07775 3.01898
Ti 13.8479 6.49117 1.23859
Ti 16.538 7.999 1.75733
Ti 14.4153 5.21922 2.832
O 17.6725 7.09527 2.48295
O 17.7183 4.98634 3.95723
Ti 19.1077 4.70868 3.34835
O 15.8881 7.26487 0.372761
O 12.1394 -0.029358 0.737463
O 14.7107 6.51508 2.31865
Ti 17.3022 6.50455 4.03602
O 14.8821 0.0273556 0.765227
Ti 11.6166 2.011 4.53842
O 18.313 6.19801 0.00704166
O 10.1257 1.13385 0.265175
O 9.74644 6.24015 7.14986
Ti 11.8731 4.04164 9.19644
O 11.6918 8.05795 5.78414
O 11.9904 1.73162 7.23266
O 11.4868 4.36105 7.87079
O 10.4798 8.28649 8.45672
O 17.8814 2.79291 5.32024
O 13.1445 2.93434 9.49381
O 11.2701 0.796598 4.97348
Ti 16.339 0.921598 8.3109
Ti 17.2204 2.74519 8.55465
Ti 16.8779 1.79522 5.69067
O 15.4756 2.05342 6.26625
Ti 14.5322 2.94617 9.14778
Ti 15.5581 2.33604 7.53896
O 16.501 0.749434 6.51208
Ti 14.8717 0.628978 6.44564
O 15.7992 3.53239 8.50718
O 18.3955 2.5075 9.18466
O 17.1892 0.0967587 9.12959
O 16.4968 5.10517 6.31246
O 14.7044 5.73563 8.41926
O 15.7257 1.82815 8.94795
O 12.972 2.71266 4.7571
Ti 16.7471 8.24595 5.56411
Ti 16.765 6.53929 6.13766
O 17.6233 7.58455 6.87828
O 13.8792 4.78622 6.08735
O 16.0323 8.24516 8.99436
Ti 18.1705 4.1201 9.20549
Ti 9.53695 7.21414 8.18076
O 18.8358 5.2867 8.54692
Ti 12.1648 6.69762 5.38764
O 9.52514 2.37346 6.89367
O 13.3619 7.57509 5.55108
Ti 18.6832 7.33004 6.07393
O 11.6763 5.4706 5.05437
O 14.0477 -0.257863 5.94163
O 13.5191 0.353164 9.4075
Ti 11.5939 4.13982 4.61169
O 16.1025 7.16802 4.80227
O 11.4243 2.71483 12.9752
O 11.6455 0.0828362 13.477
O 10.2416 1.86384 9.46889
Ti 11.912 1.28196 12.5215
Ti 12.7418 2.61459 13.6362
O 18.2754 6.53276 10.8934
Ti 18.0183 1.14501 10.0237
O 11.3576 4.05027 10.5745
O 13.0584 1.27601 11.6223
Ti 10.2604 0.303284 12.7743
O 14.6593 7.03802 10.8654
Ti 15.9277 3.89983 9.83356
Ti 9.88472 1.22576 10.6579
Ti 9.85283 8.30155 9.72057
O 16.7679 8.69675 11.342
O 13.6207 5.67441 13.5188
O 17.7399 1.67591 11.3808
O 16.6404 3.00982 13.0445
Ti 16.5557 3.80146 11.7674
O 17.46 3.92257 10.631
O 15.6239 0.42532 11.3568
O 19.207 0.647062 13.7976
O 13.5946 4.8202 10.8239
O 10.6245 5.52554 13.7377
O 13.912 2.9706 12.9404
Ti 9.94149 9.0798 11.7099
O 18.7522 9.55725 12.9308
O 18.0598 9.10246 10.2543
O 9.79245 7.71517 10.9377
Ti 13.2131 7.25033 10.5235
Ti 18.0646 9.32717 11.799
Ti 12.1659 5.21198 10.6686
O 12.0466 6.53813 11.3559
Ti 11.3374 7.46017 10.4834
Ti 19.0132 5.81388 9.872
Ti 17.4545 5.48638 10.5861
O 12.4123 8.49316 10.0855
O 16.1671 4.935 10.9338
Ti 18.8277 7.72631 10.6558
O 14.7099 9.32903 12.627
O 11.2013 0.284439 17.6267
O 12.7577 3.2995 16.108
O 10.6952 1.99977 15.1303
O 18.1723 3.3114 15.3111
O 13.819 1.32014 17.7331
Ti 13.3101 1.89937 16.5186
O 13.349 1.72389 15.086
Ti 12.0229 2.25693 15.5302
O 16.8425 4.37737 18.3062
O 14.1229 4.05183 18.4285
O 18.546 5.54737 16.2668
O 16.2837 0.293367 17.2453
O 15.2573 4.10528 15.4606
O 18.8561 0.473246 16.832
O 9.89238 7.43441 17.364
O 14.1877 8.09928 14.5976
O 11.3075 4.59967 17.815
O 13.4976 5.92502 16.5814
O 14.6907 9.03641 17.2271
O 16.3884 0.978325 14.7049
O 16.0144 6.66198 16.4346
Ti 18.9072 4.60086 15.1149
O 11.8004 7.40045 15.5186
O 13.3669 6.68307 19.1894
Ti 9.75096 4.61409 14.5801
Ti 10.8232 0.729052 14.6561
O 18.5742 8.54109 17.0409
O 17.1103 8.98542 14.7415
O 13.1988 11.9963 1.02091
Ti 13.0552 10.5143 0.764914
O 14.2954 13.081 2.9621
Ti 10.6046 14.4687 0.231657
O 11.8251 11.7649 3.68648
Ti 11.0485 11.1892 2.76833
O 10.5888 11.1789 1.44867
O 10.7049 13.108 -0.514475
O 18.9538 14.6158 3.42664
O 15.4264 11.1549 0.620271
Ti 10.909 9.50169 0.762175
O 9.75411 15.302 1.02177
O 17.8339 18.4569 4.26261
O 17.0397 11.9104 3.25886
O 15.9868 17.1307 2.77306
Ti 11.0145 16.1738 3.60914
O 18.5897 13.4603 1.2704
Ti 10.9359 14.8712 1.922
O 17.7067 15.7994 0.739122
O 14.0874 16.2849 1.58792
O 11.3258 15.6802 0.610102
Ti 10.2628 16.5036 0.539877
Ti 14.9278 9.85128 1.02577
O 11.5939 15.0423 3.17958
Ti 18.708 14.9327 0.433432
Ti 17.3371 18.1647 2.88675
O 18.5616 9.51376 3.29271
Ti 18.5209 12.6375 0.1384
O 14.4024 10.7105 3.80279
O 13.4852 18.5814 3.31128
O 10.043 17.9519 0.731471
Ti 16.6449 16.4745 1.57042
O 16.0475 16.6572 0.186412
O 10.6815 17.4501 3.72157
O 17.3362 18.9638 1.64663
O 12.1193 14.0885 6.07792
O 10.3485 12.4335 7.10257
O 15.8959 17.1405 8.65834
O 10.9787 11.2637 5.9872
O 16.9184 9.67649 5.05556
Ti 9.84492 11.0956 6.76974
O 11.5051 14.1687 8.7854
O 13.4439 11.9854 5.81383
O 15.4346 12.3074 8.8957
Ti 15.2433 13.6009 8.17693
Ti 16.6836 12.9565 6.27119
O 18.2535 13.4625 6.19963
O 16.0377 11.7472 5.83309
O 17.9225 10.4432 7.75351
O 17.7959 13.2143 8.63328
Ti 18.6415 13.9707 7.6083
O 10.9044 16.5052 5.08468
O 14.9068 9.67294 6.5551
O 14.3978 14.7438 7.71493
O 9.81415 15.9468 7.63436
O 13.0685 17.117 7.71053
O 18.5728 17.2452 7.9249
Ti 15.8992 15.457 8.54834
O 17.4382 16.005 5.47005
O 12.6279 10.8215 8.4117
O 14.0606 16.1339 5.10186
O 16.041 14.3188 7.16698
O 11.1106 18.8231 8.616
Ti 12.825 12.1638 11.0819
Ti 11.2925 10.2743 12.2257
O 11.5602 12.0189 12.0172
O 12.5188 10.7677 11.2548
Ti 10.9784 12.4747 10.7427
O 13.5069 13.1629 10.2423
Ti 13.2243 14.4426 10.9019
Ti 10.6286 12.0342 13.1525
O 10.2512 18.8007 14.3152
O 11.5841 15.1726 13.5538
O 14.844 10.1453 9.98412
O 14.1375 15.059 11.8293
O 16.2438 18.1029 13.1623
O 19.0551 13.8186 12.1261
O 14.9642 12.0998 12.324
O 17.1763 11.5485 10.5042
O 14.6015 17.7004 11.145
O 9.90224 16.5207 11.3614
O 13.3007 16.9544 13.4955
O 12.1998 15.7322 10.774
O 10.4202 9.67467 12.9379
O 11.9166 17.9904 11.0595
O 10.3229 11.6237 9.62152
Ti 11.2691 16.6646 10.9839
Ti 16.9124 16.7195 12.8164
Ti 15.3491 14.9798 11.0144
O 16.5271 14.188 10.7442
O 17.9497 15.8678 12.2497
Ti 15.3851 17.0153 10.1891
Ti 15.6473 18.4035 11.8982
O 16.2183 15.7481 10.0811
Ti 17.2391 15.494 11.1974
O 13.1404 13.5159 14.0911
O 15.7824 15.7601 13.4394
O 18.7519 17.6883 10.6296
O 10.5874 14.0639 11.0989
O 9.70855 19.2259 11.1868
O 18.877 11.9993 14.3333
O 11.8421 10.358 15.1056
O 10.2956 12.2198 14.4382
O 14.1658 11.8459 17.7696
O 17.5154 12.0459 18.6417
O 11.1134 12.249 16.5097
Ti 17.421 13.3381 18.2064
O 17.256 10.7729 16.1576
O 17.5263 14.5464 17.688
O 9.88743 19.2908 15.8936
O 17.8087 17.6046 15.0179
Ti 15.7641 18.9371 14.2854
O 14.5156 18.2461 15.3022
Ti 10.9237 18.3609 15.65
O 16.8185 16.1222 15.4691
O 11.0857 14.5329 16.9957
O 11.5417 17.0474 15.9308
O 12.7132 17.2844 17.9612
Ti 18.1705 16.3095 15.0329
O 17.5657 17.5338 17.7324
Ti 17.5257 16.9794 19.0065
Ti 17.5144 17.1527 16.47
O 16.0696 13.4805 14.8797
O 13.9209 15.1124 16.2491
Ti 17.6426 19.1471 17.4827
O 9.57427 16.4198 17.9963
Ti 16.8575 15.0222 18.8939
O 17.0102 9.69484 18.7052
O 14.3577 10.979 14.8025
O 15.997 13.904 17.9949
O 13.1009 14.3668 18.6818
Ti 16.6024 10.976 19.0254
