600
17.8826295504 17.8826295504 17.9697703969
Ti 1.59398 2.08276 2.40165
Ti 3.24406 2.82556 2.64181
O 1.20025 2.89965 3.47839
O 1.25206 2.47506 0.9618
O 2.57862 1.97303 3.47181
O 4.47238 1.38693 1.65098
O 3.43813 3.97649 5.02048
O 3.59203 3.08749 1.24747
O 3.9136 4.22401 2.55794
O 0.885381 0.99574 1.51762
Ti 2.26099 3.23713 4.47341
Ti 1.86542 1.26596 0.529396
O 9.21604 4.50461 3.14831
Ti 6.81984 2.05292 3.09328
O 5.96569 1.32549 3.98139
O 8.46778 0.410228 2.27703
O 7.54583 1.735 4.26895
O 6.94186 1.89905 1.41934
O 6.72184 3.29433 2.22695
O 9.24313 1.9308 3.99374
Ti 6.61284 3.10349 0.825585
Ti 6.99761 0.90274 0.424602
O 3.35481 9.35447 4.31673
Ti 1.50502 6.80198 2.97642
Ti 3.32464 7.01101 2.78048
Ti 0.943443 7.82843 0.560037
O 1.03097 5.66532 3.64619
O 2.54693 6.317 3.78279
O 4.11581 6.86996 4.04609
O 3.70572 6.72673 1.31926
O 1.11625 7.82678 2.12358
O 3.29937 8.23028 1.71684
Ti 3.21786 9.31266 2.84812
Ti 1.13271 9.01459 2.86363
Ti 8.69191 8.25535 4.495
Ti 6.21983 8.22927 4.83878
O 5.95774 5.16762 4.26542
O 5.90589 6.92901 2.20054
Ti 6.42051 6.76777 0.634105
Ti 6.69062 6.11747 3.01735
O 7.18615 5.92631 1.71829
O 8.96076 8.26643 1.4583
O 7.41921 8.42257 3.90662
O 5.94849 9.1276 3.81414
O 7.4851 6.01832 4.47082
Ti 6.43064 7.98576 3.07545
Ti 8.71737 6.49413 4.97542
Ti 2.8123 1.88463 8.25434
Ti 2.94338 4.06906 8.86047
O 2.15686 3.20102 8.1188
O 3.10353 0.852316 9.51942
O 1.77969 1.83374 7.05716
O 1.75838 3.97255 5.75655
O 4.29585 1.50082 8.53615
O 4.09813 1.28765 5.77587
Ti 7.09539 1.20428 7.77015
Ti 6.4043 3.16483 7.43087
O 6.42737 1.78355 6.69771
O 8.34234 0.909361 8.35616
O 5.9031 3.55646 8.70706
O 6.0034 3.22585 6.02419
O 7.40801 4.07083 8.24641
O 8.32074 3.97038 5.74068
Ti 8.90956 1.59779 7.33517
Ti 8.42271 3.98086 7.14707
Ti 8.48611 2.53287 5.12255
Ti 6.58336 2.12441 5.34374
O 9.08173 2.87824 6.62319
O 0.705859 5.62277 7.83637
O 4.02166 5.03211 9.00253
Ti 3.00629 7.35323 7.48034
O 3.10184 6.18279 6.63983
O 2.5581 7.47712 8.82042
O 2.55386 7.74185 6.21424
O 1.24195 8.69715 8.49606
O 4.10704 8.03692 8.25688
Ti 3.97971 7.66408 9.74678
Ti 3.10778 6.81886 5.08848
O 8.90554 5.03594 8.06859
O 8.14197 7.45518 7.47663
O 9.78812 7.97466 7.71282
Ti 7.58579 7.50233 8.73957
O 5.6644 7.40659 5.8603
O 5.95382 6.0008 6.77683
O 6.86716 8.68761 7.80204
Ti 6.39102 6.17724 5.42109
Ti 6.77475 7.43108 6.97469
Ti 9.29014 7.24212 6.52783
Ti 1.55334 2.62028 11.5113
Ti 3.61411 2.99689 11.8513
O 0.936812 2.52579 12.7747
O 1.26595 2.73574 10.1948
O 2.54828 2.38564 12.5216
O 4.43406 2.84437 10.7239
O 4.47497 4.10837 11.8981
Ti 3.84552 4.26716 10.3167
Ti 1.90213 1.53567 9.77997
Ti 4.2427 1.61272 9.88778
Ti 1.66665 4.09843 10.3308
O 0.465158 1.21658 9.89377
O 0.410928 5.08477 13.3273
O 5.30284 1.33331 10.9808
Ti 7.67619 2.21932 12.023
O 6.41923 2.36918 13.0611
O 8.62381 1.20001 11.0875
O 7.95714 2.49135 13.6024
O 7.53823 2.58839 10.5543
O 7.04865 4.16563 10.9548
Ti 7.03167 3.56588 9.57623
Ti 7.99999 1.26265 9.7962
Ti 1.49844 7.00966 11.5883
Ti 3.78329 7.11481 11.8179
O 2.5725 6.44214 12.2744
O 3.93495 6.79653 13.3048
O 4.71681 6.86382 10.6492
O 4.19955 8.39773 10.9169
Ti 1.0508 9.28836 12.1798
Ti 3.61011 9.17558 11.8915
Ti 1.40414 7.78685 9.73495
Ti 2.55057 6.86883 13.8293
Ti 2.22931 9.11526 13.7814
O 2.585 5.0579 9.87784
Ti 8.74589 8.37485 13.2521
O 7.50661 9.08359 13.1001
O 6.10566 8.26548 12.7699
O 7.66554 8.0125 10.3407
Ti 6.89022 8.71253 11.5888
O 7.4587 6.42052 9.91967
O 8.49653 4.86279 12.9957
Ti 7.75461 6.93171 11.2116
O 7.94433 6.4082 12.501
O 6.3032 5.85714 12.749
Ti 8.94096 6.31326 13.4554
Ti 6.91225 8.06347 13.9264
Ti 7.1982 6.22862 13.8282
O 3.94554 1.63719 16.8705
Ti 2.41991 1.77951 16.5669
Ti 2.2033 3.76184 16.6955
O 1.24924 2.68615 16.5987
O 1.8241 1.70512 15.1952
O 2.14458 4.96112 17.8727
O 1.99102 3.41444 15.1484
O 3.46765 4.63269 17.0422
Ti 3.6755 1.53184 18.3032
O 2.81906 0.677776 17.6606
Ti 3.08346 4.0693 18.3049
Ti 0.961256 4.15807 18.2576
O 4.76652 4.19942 14.7055
O 4.23079 1.32154 14.2508
Ti 1.82698 2.50553 13.9592
Ti 8.83348 2.5189 14.7852
O 9.16337 3.64365 15.8681
Ti 6.88873 1.94946 14.3396
Ti 6.71376 0.785577 16.504
Ti 6.50827 2.96171 16.855
O 6.37623 1.99532 15.8678
O 5.63124 3.63473 17.7897
O 7.23695 3.89079 17.5397
Ti 8.54432 0.962723 17.1402
Ti 8.18303 3.24169 16.8726
O 8.69806 2.0855 16.2539
O 6.66853 0.560216 15.0361
Ti 2.34877 7.39701 16.0794
O 2.05942 6.26096 15.014
O 1.89058 7.67923 17.404
O 1.75578 7.86935 14.5807
O 0.681977 9.00091 17.6213
O 3.43744 7.60738 16.9223
Ti 3.10036 7.59799 18.4267
O 3.76285 9.65155 15.8656
O 9.45928 7.5795 14.1789
O 7.04709 7.4761 17.5259
O 9.09175 5.52489 17.5576
O 7.08112 7.22739 14.972
O 5.6894 6.51983 17.4488
O 7.34113 5.63232 15.4199
Ti 6.76616 6.67569 16.2629
O 0.312695 11.7686 1.3121
Ti 1.00019 9.74873 4.46433
Ti 2.38512 12.8982 2.16865
O 1.62199 13.4454 3.12149
O 2.72013 11.5895 1.68212
O 3.68164 12.9841 1.6374
O 1.98894 10.1016 3.46854
Ti 1.35222 13.1197 4.46406
Ti 0.505711 12.8659 2.16832
O 4.35223 9.80506 1.74958
O 8.6572 9.62547 3.78978
Ti 6.18907 11.8118 4.77298
Ti 6.73614 11.5764 2.35106
O 5.66527 11.845 3.21045
O 7.14236 10.3846 1.56279
O 7.25619 12.0509 3.60334
O 6.95937 12.0785 0.927846
Ti 7.88808 12.7692 4.62434
O 4.13369 13.8946 4.06725
O 4.27426 16.4226 0.981483
O 2.8238 16.3187 3.42808
O 4.11948 17.298 3.73115
Ti 2.04064 16.11 2.35473
O 0.790709 15.5175 2.05885
Ti 4.14401 16.3868 2.5154
O 1.74546 16.3123 0.928149
Ti 3.18314 16.6476 4.69168
O 0.775891 17.8338 4.14602
O 5.15852 15.3098 2.06384
Ti 7.90734 15.8467 3.11674
O 6.86798 16.6712 3.54785
Ti 7.84063 15.0618 0.919617
O 8.79486 15.7795 1.69555
O 7.83029 14.5654 2.26471
O 8.22105 16.3271 4.42615
Ti 6.67781 16.1524 4.95435
Ti 2.43071 12.8613 6.69345
O 1.55834 13.6085 5.93852
O 2.46367 12.3177 8.08461
O 2.30766 12.2889 5.41034
O 0.953572 11.3438 8.14329
O 3.66101 13.3657 7.68543
O 3.55166 10.2897 6.7935
Ti 3.19414 13.1221 8.96
O 3.27858 10.1627 9.44283
O 0.883796 9.73051 5.78021
Ti 1.43945 12.1911 9.29331
Ti 6.26217 11.7715 7.22639
O 5.56851 12.448 5.85746
O 5.77799 11.3981 8.55993
O 6.26586 10.8843 5.82333
O 7.26965 12.167 8.23318
Ti 7.88696 12.5655 7.0932
O 7.95964 13.3324 5.94906
O 8.79978 10.0077 9.22788
O 9.01087 10.2693 6.28804
Ti 2.66291 16.1325 7.17038
O 2.43454 17.0793 6.11102
O 3.09584 15.8618 8.50432
O 3.40072 15.7384 6.00701
O 1.53077 15.3913 8.15575
O 4.49337 16.8119 8.227
Ti 1.91127 16.1108 9.34198
O 5.90374 16.718 6.05692
Ti 6.45255 15.4285 6.90376
Ti 9.41752 16.409 5.54254
O 6.87284 18.3642 8.96674
O 7.73455 15.2177 7.7
O 6.23351 14.7793 8.34215
Ti 7.15712 15.6237 8.90468
Ti 8.95657 15.6645 7.17041
O 5.98493 15.0975 5.64156
Ti 1.45187 12.7551 11.6943
Ti 3.44507 13.4886 11.6252
O 1.46524 11.701 10.6641
O 0.95327 12.9565 13.185
O 2.39202 13.5836 12.7334
O 4.06778 12.2922 10.7981
O 3.20804 13.7652 10.1648
O 2.44314 9.75268 12.3882
Ti 2.22948 12.5197 13.642
O 3.79976 9.54007 13.2776
O 0.810783 13.2095 10.1912
Ti 6.72475 12.3894 11.8446
O 5.40031 11.9559 12.7887
O 7.67414 11.878 10.9774
O 6.87904 12.6041 13.3882
O 6.6628 13.1333 10.6324
Ti 6.82287 12.1973 9.57649
O 9.05075 9.45974 12.1959
O 9.25678 13.8616 12.3556
O 6.59014 9.44032 10.4039
O 4.23607 14.1826 12.7557
O 4.15542 16.8831 10.9001
Ti 2.30995 16.6838 11.6599
Ti 4.01719 17.0691 12.3365
O 1.59209 15.3611 11.3494
O 1.57965 16.8549 10.5029
O 2.64193 17.4836 12.7119
O 5.05733 15.4229 10.432
O 4.92105 16.7898 13.4172
Ti 4.15779 16.237 9.5233
O 7.45367 16.1913 10.1763
O 6.66197 15.0903 12.4012
Ti 7.1967 16.2169 11.7345
O 7.18087 17.5248 12.4414
Ti 3.07394 12.2385 15.961
O 3.76047 13.1491 15.1026
O 2.16721 12.248 17.2186
O 2.96855 11.7562 14.556
O 0.690644 11.752 16.4537
O 3.74388 11.6622 17.2754
Ti 0.937524 12.1834 17.9289
O 1.365 9.54813 14.8738
Ti 3.07597 12.1533 18.3889
Ti 6.2809 10.4621 16.0561
O 5.66015 11.605 15.5833
O 5.76707 9.87124 17.4551
O 6.07615 10.3416 14.7004
O 7.34185 9.83919 17.0233
Ti 8.19241 10.7072 16.1959
O 8.14942 12.2694 15.5868
O 8.47889 11.0087 14.591
Ti 6.05965 11.7371 14.1635
Ti 6.77504 10.4627 18.2184
Ti 7.79848 12.1659 14.222
O 9.05963 10.2132 17.414
Ti 2.78112 16.6803 13.843
Ti 2.53003 15.4469 15.9197
O 2.94269 16.8704 15.2692
O 3.08413 14.7073 17.1928
O 2.76547 15.5348 14.4497
O 1.47095 14.8781 16.7828
O 4.63985 14.0901 17.5233
Ti 4.08632 15.33 18.0421
Ti 2.10072 15.3511 17.9175
O 9.4918 17.7855 17.9372
O 7.7082 17.8761 17.5992
O 6.19437 14.4189 15.5754
O 5.67507 15.9902 15.7904
O 6.78276 15.3765 17.8771
O 8.02371 14.3645 17.4991
Ti 9.006 15.4503 15.2214
O 6.02365 17.9536 17.7169
Ti 9.33481 14.8188 16.8223
Ti 6.90852 15.568 15.1528
Ti 6.95788 14.8012 16.6228
O 7.99032 16.0857 14.4215
Ti 12.0418 1.73709 2.83954
O 10.9951 1.62744 1.86115
O 12.9166 2.56735 3.5165
O 11.1244 3.26446 2.37049
Ti 12.0722 0.877154 1.24121
Ti 11.2546 2.78412 0.974527
O 14.1665 3.85751 1.6426
Ti 15.4527 1.62163 2.67018
O 15.3353 1.93055 4.25453
O 14.8792 2.20594 1.51392
O 16.7624 1.6553 3.24797
O 18.0219 3.99854 1.5021
Ti 15.4834 1.31847 0.411864
O 16.9613 3.83601 4.96676
Ti 16.5142 2.41073 5.0033
Ti 11.7327 6.11983 2.58591
Ti 11.959 8.2762 2.37921
O 11.4215 6.19459 4.06687
O 10.9487 5.87312 1.37071
O 12.7321 5.35023 3.33081
O 11.977 7.1996 1.43621
O 11.061 8.74445 3.2577
Ti 12.0609 8.76752 4.52486
O 12.4804 9.38983 3.01159
Ti 12.388 6.73358 4.9256
O 14.2578 8.34747 0.815096
O 14.5385 6.65282 1.67319
O 15.8702 8.94621 3.21721
Ti 16.6472 6.94436 4.6354
O 16.6762 6.61866 3.27469
Ti 14.7173 8.08192 2.37742
O 14.5274 8.36089 4.00019
Ti 15.7458 8.57792 4.57523
O 15.8372 5.60852 1.35854
O 15.3007 6.15174 4.09411
Ti 15.5346 6.25052 2.60851
O 18.0205 6.70515 1.13557
Ti 12.4259 1.37256 7.50947
Ti 12.3119 3.38767 7.83767
O 12.7562 2.43722 6.62035
O 13.1839 0.361287 4.87131
O 12.387 3.91122 9.25515
O 12.9264 4.08182 6.71631
O 10.9859 3.19649 8.73452
Ti 11.9563 3.40918 5.9818
O 9.73702 1.39888 6.12958
Ti 12.138 0.757425 9.34727
O 11.3086 0.75611 8.06241
O 11.0096 3.67103 4.99466
O 15.5719 0.679746 8.25739
Ti 16.5186 2.37417 6.97976
Ti 16.5536 4.0084 8.20284
Ti 15.617 1.97174 8.87662
O 17.4759 3.36059 7.32092
O 17.2497 1.57496 5.9011
O 15.2132 2.13819 7.49406
O 16.5029 4.97933 9.18034
O 15.1831 4.32517 8.34893
Ti 11.5723 6.51073 9.16964
O 9.7085 5.97633 5.74709
O 9.67536 7.50363 5.1614
O 11.5441 6.02764 7.85425
Ti 12.4486 6.86179 6.81941
O 12.6624 7.96904 5.51944
O 13.516 6.53598 5.70763
O 12.4655 7.20497 8.41455
O 16.5846 8.04905 5.65732
O 16.6251 7.28247 8.39883
O 17.5733 6.44082 5.89858
Ti 16.537 7.17974 6.94755
Ti 15.3248 7.62607 8.97675
O 15.113 6.89606 7.77492
Ti 12.2056 1.80724 11.9608
O 12.2045 0.900162 13.1913
O 12.3561 1.73521 10.4674
O 13.1514 2.37187 12.998
O 11.0865 2.51218 11.1527
Ti 11.7337 2.84157 9.94129
O 11.0841 4.59241 13.0341
O 9.66537 2.18311 13.5466
O 9.74078 4.93997 10.6347
O 12.4297 4.90852 12.1081
Ti 15.6573 2.62349 11.5379
O 15.7521 1.66042 12.5787
O 15.8617 2.4748 10.14
O 16.461 3.18082 12.67
O 14.6781 3.43077 10.8175
O 18.1719 3.95487 10.8592
Ti 15.5341 3.76932 9.59147
Ti 16.6009 2.0552 13.9118
Ti 12.2781 5.25148 13.5138
Ti 10.9077 5.42544 11.5726
O 10.8614 6.28803 10.3623
Ti 12.2255 7.366 13.3455
Ti 11.5827 7.29744 11.0185
O 11.6985 8.66488 12.8269
O 10.4598 7.90297 10.2969
O 12.6456 7.53298 11.9162
Ti 16.0516 6.90013 12.6372
Ti 14.8593 8.99589 10.9009
O 18.4292 6.67494 10.5662
O 14.1522 9.28875 12.8859
O 16.614 8.04405 13.2375
Ti 15.4987 8.85627 12.8887
O 14.7025 7.71855 10.3208
O 16.186 5.78735 11.7621
Ti 15.0764 6.44968 11.1421
O 14.8969 6.12422 12.6996
O 13.9581 6.11469 10.1597
O 18.5813 8.17653 11.2966
O 14.8145 9.16241 9.38959
Ti 12.4958 0.886504 16.7204
Ti 12.1495 2.5699 16.6483
O 12.9946 1.81027 15.781
O 12.7965 0.638579 18.0963
O 12.2933 3.02125 17.9574
O 11.6826 2.72504 15.3034
O 10.705 3.57946 17.8546
Ti 12.5109 1.99463 14.2132
O 15.2339 0.884094 17.0432
Ti 16.4031 1.47816 16.2319
Ti 15.8237 3.49372 16.1988
O 16.6493 2.63138 15.1924
O 16.7397 1.3429 17.6497
O 17.1006 1.00101 14.773
O 16.0746 3.87299 17.5305
O 16.0163 4.34333 14.7739
O 14.607 3.45838 16.8674
Ti 14.9152 3.32587 18.4459
O 18.4677 5.0389 16.9729
O 13.2417 5.2322 14.7825
O 9.77797 5.98859 14.7171
Ti 9.66939 7.17893 15.5344
O 9.69172 7.73177 16.7357
Ti 12.0209 6.04935 18.4666
O 11.7557 5.95375 16.9485
O 12.372 6.63183 14.5104
Ti 12.3422 5.90286 15.7116
O 13.1874 5.42582 17.8577
O 13.941 8.9749 15.7682
Ti 16.6276 6.87908 16.2063
O 15.2727 6.37899 16.6573
O 17.5405 6.76417 15.2054
Ti 15.5261 6.59221 18.2632
O 16.2413 7.51438 17.3979
Ti 10.5296 11.9715 0.687381
Ti 10.5722 11.75 2.63329
O 10.0997 10.8773 1.62023
O 10.6553 11.3431 4.34281
O 9.66358 12.4191 1.88131
O 11.8189 12.125 3.40761
Ti 11.7377 12.0616 4.75698
O 13.7382 11.0173 1.00864
O 13.8909 12.6785 1.40831
O 16.3342 9.92227 0.738778
O 15.7965 11.7544 2.83682
O 14.5038 11.1233 3.6011
Ti 14.4498 11.6253 2.1431
O 18.0128 13.3472 0.788203
Ti 15.5964 11.6502 4.24161
O 18.1403 10.179 3.33847
O 17.9953 12.9948 3.77322
O 9.06044 13.5925 4.65942
O 12.7047 16.0071 3.55592
O 11.2931 15.9557 1.32769
O 11.689 14.8901 4.13181
O 11.6239 14.3102 1.7171
Ti 11.8596 15.2631 2.76658
O 9.82897 17.131 4.32589
Ti 12.2592 14.9679 0.672403
O 11.7026 18.2761 2.65388
O 16.9253 16.9574 0.97535
Ti 15.6965 16.0142 3.02885
O 16.0139 17.0394 3.93769
Ti 15.8665 15.9387 1.23001
O 14.6884 15.7835 2.08116
O 15.9528 14.801 2.36834
O 14.9076 18.4478 1.84264
Ti 12.0466 11.9874 6.98051
O 11.8808 13.0599 6.08702
O 12.5338 11.8488 8.5707
O 12.9037 11.711 5.90238
O 10.9921 11.1409 7.99903
O 11.5975 9.22944 5.86819
O 9.24782 12.6986 6.7414
Ti 15.9132 12.0214 6.64529
Ti 15.1927 12.1069 8.85735
O 15.3963 12.6933 5.49246
O 16.3185 12.0324 8.10544
O 16.5458 11.5267 5.47679
O 14.8419 11.3433 7.70724
O 16.6867 9.73714 7.53409
O 9.72145 16.7661 7.06441
O 10.0679 15.2495 6.46464
O 13.2803 15.4868 8.84676
O 12.5021 16.3377 6.32505
O 13.6384 15.0498 6.09731
Ti 12.8451 15.3446 7.47366
O 11.9885 14.5361 8.36144
Ti 12.6639 15.5382 5.04923
O 12.8472 18.0588 8.08308
O 17.9873 17.678 7.80064
O 17.8818 15.829 5.98651
Ti 16.4084 16.2532 5.12541
Ti 16.767 15.2094 6.8627
O 15.7499 15.9391 7.84899
O 16.5531 14.7792 5.47527
O 16.8573 14.5208 8.33663
O 15.4739 17.4237 5.56773
Ti 16.1242 15.7937 9.19315
Ti 11.3016 11.4861 11.8551
O 11.2533 10.3176 10.6007
O 10.9607 11.4897 13.2348
O 10.6346 12.1071 10.5305
O 12.5657 11.7403 12.8107
Ti 11.4447 11.3391 9.38573
O 17.2362 10.3183 10.0472
Ti 15.1036 12.646 10.9364
O 14.2757 11.8021 10.2153
O 14.9902 13.4958 12.4187
O 14.6788 13.2881 9.7163
O 16.2677 12.473 11.8499
Ti 15.5912 12.348 13.209
O 17.9441 10.3039 12.6892
O 15.3395 9.84135 11.8642
O 9.95072 17.263 12.5896
O 13.4144 16.4068 12.3994
O 11.3691 15.29 11.084
O 12.5938 14.093 11.2545
Ti 12.75 15.322 11.8674
Ti 12.188 14.9425 9.80251
O 11.9317 17.8815 10.7181
O 9.82664 16.9176 9.78522
O 9.34051 13.9753 9.46682
O 18.1888 18.1494 12.1528
O 14.4957 18.174 10.6707
O 15.4012 15.7514 10.5824
O 17.0962 15.4335 12.6367
Ti 16.3269 16.2532 11.5755
O 16.6591 16.8326 10.2819
O 16.2961 16.7999 13.0064
Ti 11.6753 12.1692 16.4764
O 12.1781 12.9978 15.2195
O 11.9031 12.344 17.8923
O 12.4715 11.2245 15.6118
O 10.3453 12.3133 17.0451
O 10.5673 9.55997 15.2246
O 11.8299 9.39013 17.7698
Ti 12.0377 11.8511 14.1758
O 14.5975 12.7192 16.5228
Ti 15.2614 12.2244 15.4091
O 16.4167 12.1305 14.6413
O 15.9886 11.9834 17.4402
O 14.9845 11.3392 14.2852
O 16.6361 9.79738 15.8581
Ti 14.6746 12.2053 17.9999
O 10.0026 15.7954 16.065
O 13.6442 14.732 17.9713
Ti 13.5608 15.2199 16.6632
O 12.3017 14.8323 17.0835
Ti 13.1453 15.8624 15.1134
O 9.79416 14.3757 15.4075
O 11.9869 17.4855 17.0928
O 11.9465 16.3699 14.5867
O 9.62667 14.4631 18.2086
O 10.342 18.2569 15.3004
O 18.3617 17.3943 16.5629
O 14.196 16.334 15.9955
O 14.1919 14.9209 15.1369
O 15.9634 16.0309 17.756
O 17.009 14.0394 16.1962
O 14.4123 18.0543 14.3941
O 16.815 15.471 15.2762
Ti 16.4317 15.2778 16.7054
Ti 16.7031 15.8261 13.9391
